# SEAICE parameters
 &SEAICE_PARM01
  SEAICEwriteState  = .true.,
  SEAICEuseFlooding = .true.,
  SEAICEadvSnow     = .true.,
  SEAICE_no_slip    = .false.,
  SEAICE_initialHEFF = 0.0,
  AreaFile = 'SIarea_025deg64_new.init',
  HeffFile = 'SIheff_025deg64_new.init',
#  AreaFile = 'sic_rst.bin',
#  HeffFile = 'sih_rst.bin',
#  HsnowFile = 'snowh_rst.bin',
  HO = 1.,
  SEAICEadvScheme   = 1,
  SEAICE_deltaTevp  = 20.,
  SEAICE_waterTurnAngle = 0.0,
  SEAICE_drag  = 0.002,
 &
